Version 4.1
SHEET 1 1348 1140
WIRE 144 64 48 64
WIRE 256 64 224 64
WIRE 528 64 368 64
WIRE 672 64 592 64
WIRE 784 64 672 64
WIRE 816 64 784 64
WIRE 1232 64 1072 64
WIRE 256 112 256 64
WIRE 48 128 48 64
WIRE 672 144 672 64
WIRE 672 144 592 144
WIRE 368 160 368 144
WIRE 480 160 368 160
WIRE 672 160 672 144
WIRE 480 176 480 160
WIRE 368 192 368 160
WIRE 944 192 944 160
WIRE 1120 192 944 192
WIRE 48 256 48 208
WIRE 256 256 256 192
WIRE 256 256 48 256
WIRE 528 272 368 272
WIRE 592 272 592 144
WIRE 672 272 672 224
WIRE 784 304 784 64
WIRE 816 304 784 304
WIRE 1232 304 1072 304
WIRE 944 480 944 400
WIRE 1120 480 1120 192
WIRE 1120 480 944 480
WIRE 1136 480 1120 480
WIRE 784 592 784 304
WIRE 816 592 784 592
WIRE 1232 592 1072 592
WIRE 944 720 944 688
WIRE 1120 720 1120 480
WIRE 1120 720 944 720
WIRE 784 848 784 592
WIRE 832 848 784 848
WIRE 928 848 912 848
WIRE 1056 848 928 848
WIRE 1200 848 1056 848
WIRE 1248 848 1200 848
WIRE 928 880 928 848
WIRE 1056 928 1056 848
WIRE 928 976 928 960
WIRE 1024 976 1024 960
WIRE 1024 976 928 976
WIRE 1200 976 1200 848
WIRE 928 1024 928 976
WIRE 928 1120 928 1104
WIRE 1056 1120 1056 992
WIRE 1056 1120 928 1120
WIRE 1200 1120 1200 1040
WIRE 1200 1120 1056 1120
FLAG 480 176 0
FLAG 672 272 0
FLAG 1136 480 0
FLAG 1232 64 5v
FLAG 1232 304 12v
FLAG 1232 592 15v
FLAG 1056 1120 0
FLAG 1248 848 3.3v
SYMBOL voltage 48 112 R0
WINDOW 123 0 0 Left 0
WINDOW 39 0 0 Left 0
SYMATTR InstName V1
SYMATTR Value SINE(0 200 50)
SYMBOL res 240 48 R90
WINDOW 0 0 56 VBottom 2
WINDOW 3 32 56 VTop 2
SYMATTR InstName R1
SYMATTR Value 1
SYMBOL ind2 240 96 R0
SYMATTR InstName L1
SYMATTR Value 100
SYMBOL ind2 352 48 R0
SYMATTR InstName L2
SYMATTR Value 1
SYMBOL ind2 352 176 R0
SYMATTR InstName L3
SYMATTR Value 1
SYMBOL diode 528 80 R270
WINDOW 0 32 32 VTop 2
WINDOW 3 0 32 VBottom 2
SYMATTR InstName D1
SYMATTR Value 1N4007
SYMBOL diode 528 288 R270
WINDOW 0 32 32 VTop 2
WINDOW 3 0 32 VBottom 2
SYMATTR InstName D2
SYMATTR Value 1N4007
SYMBOL cap 656 160 R0
SYMATTR InstName C1
SYMATTR Value 4700µ
SYMBOL 7805 944 64 R0
SYMATTR InstName U1
SYMBOL 7812 944 304 R0
SYMATTR InstName U2
SYMBOL 7815 944 592 R0
SYMATTR InstName U3
SYMBOL TL431 1040 992 M180
SYMATTR InstName U4
SYMBOL res 928 832 R90
WINDOW 0 0 56 VBottom 2
WINDOW 3 32 56 VTop 2
SYMATTR InstName R2
SYMATTR Value 1k
SYMBOL res 912 864 R0
SYMATTR InstName R3
SYMATTR Value 1k
SYMBOL res 912 1008 R0
SYMATTR InstName R4
SYMATTR Value 3k
SYMBOL cap 1184 976 R0
SYMATTR InstName C2
SYMATTR Value 10µ
TEXT 360 -24 Left 2 !K L1 L2 L3 1
TEXT 8 328 Left 2 !.tran 1
