Version 4.1
SHEET 1 1800 1140
WIRE 144 64 48 64
WIRE 256 64 224 64
WIRE 528 64 368 64
WIRE 672 64 592 64
WIRE 784 64 672 64
WIRE 816 64 784 64
WIRE 1232 64 1072 64
WIRE 1328 64 1232 64
WIRE 256 112 256 64
WIRE 48 128 48 64
WIRE 672 144 672 64
WIRE 672 144 592 144
WIRE 368 160 368 144
WIRE 480 160 368 160
WIRE 672 160 672 144
WIRE 480 176 480 160
WIRE 368 192 368 160
WIRE 944 192 944 160
WIRE 1120 192 944 192
WIRE 1232 208 1232 64
WIRE 1312 208 1232 208
WIRE 1600 208 1568 208
WIRE 48 256 48 208
WIRE 256 256 256 192
WIRE 256 256 48 256
WIRE 528 272 368 272
WIRE 592 272 592 144
WIRE 672 272 672 224
WIRE 784 304 784 64
WIRE 816 304 784 304
WIRE 1232 304 1072 304
WIRE 944 480 944 400
WIRE 1120 480 1120 192
WIRE 1120 480 944 480
WIRE 1440 480 1440 304
WIRE 1440 480 1120 480
WIRE 1120 496 1120 480
WIRE 784 592 784 304
WIRE 832 592 784 592
WIRE 928 592 912 592
WIRE 1056 592 928 592
WIRE 1200 592 1056 592
WIRE 1248 592 1200 592
WIRE 928 624 928 592
WIRE 1056 672 1056 592
WIRE 928 720 928 704
WIRE 1024 720 1024 704
WIRE 1024 720 928 720
WIRE 1200 720 1200 592
WIRE 928 768 928 720
WIRE 928 864 928 848
WIRE 1056 864 1056 736
WIRE 1056 864 928 864
WIRE 1200 864 1200 784
WIRE 1200 864 1056 864
FLAG 480 176 0
FLAG 672 272 0
FLAG 1056 864 0
FLAG 1248 592 3.3v
FLAG 1328 64 15v
FLAG 1600 208 5v
FLAG 1232 304 12v
FLAG 1120 496 0
SYMBOL voltage 48 112 R0
WINDOW 123 0 0 Left 0
WINDOW 39 0 0 Left 0
SYMATTR InstName V1
SYMATTR Value SINE(0 200 50)
SYMBOL res 240 48 R90
WINDOW 0 0 56 VBottom 2
WINDOW 3 32 56 VTop 2
SYMATTR InstName R1
SYMATTR Value 1
SYMBOL ind2 240 96 R0
SYMATTR InstName L1
SYMATTR Value 100
SYMBOL ind2 352 48 R0
SYMATTR InstName L2
SYMATTR Value 1
SYMBOL ind2 352 176 R0
SYMATTR InstName L3
SYMATTR Value 1
SYMBOL diode 528 80 R270
WINDOW 0 32 32 VTop 2
WINDOW 3 0 32 VBottom 2
SYMATTR InstName D1
SYMATTR Value 1N4007
SYMBOL diode 528 288 R270
WINDOW 0 32 32 VTop 2
WINDOW 3 0 32 VBottom 2
SYMATTR InstName D2
SYMATTR Value 1N4007
SYMBOL cap 656 160 R0
SYMATTR InstName C1
SYMATTR Value 4700µ
SYMBOL 7805 1440 208 R0
SYMATTR InstName U1
SYMBOL 7812 944 304 R0
SYMATTR InstName U2
SYMBOL 7815 944 64 R0
SYMATTR InstName U3
SYMBOL TL431 1040 736 M180
SYMATTR InstName U4
SYMBOL res 928 576 R90
WINDOW 0 0 56 VBottom 2
WINDOW 3 32 56 VTop 2
SYMATTR InstName R2
SYMATTR Value 1k
SYMBOL res 912 608 R0
SYMATTR InstName R3
SYMATTR Value 1k
SYMBOL res 912 752 R0
SYMATTR InstName R4
SYMATTR Value 3k
SYMBOL cap 1184 720 R0
SYMATTR InstName C2
SYMATTR Value 10µ
TEXT 360 -24 Left 2 !K L1 L2 L3 1
TEXT 8 328 Left 2 !.tran 1
